
gnucap -b servoVanne.ckt

.PRINT DC V(5) V(6)
.DC Vin 00.00m 10000.00m BY 100.00m TE 27.00 BASIC

.END

